LTspice 24.0.12 for Windows
Circuit: LTSpice Test Bench for V21
Start Time: Fri Feb 14 12:06:18 2025
solver = Normal
Maximum thread count: 24
tnom = 27
temp = 27
method = modified trap
WARNING: Node 1:NC-U6-1 is floating.
WARNING: Node 1:NC-U6-2 is floating.
WARNING: Node 1:NC-U6-4 is floating.
WARNING: Node 1:NC-U6-5 is floating.
WARNING: Node 1:UNCONNECTED-_U2-SN2-PAD4_ is floating.

WARNING: Less than two connections to node 1:unconnected-_u3-dp1-pad13_.  This node is used by m:1:u3:fet1:1.
WARNING: Less than two connections to node 1:unconnected-_u3-dp2-pad1_.  This node is used by m:1:u3:fet2:1.
WARNING: Less than two connections to node 1:unconnected-_u2-dn1-pad8_.  This node is used by m:1:u2:fet4:1.
WARNING: Less than two connections to node 1:unconnected-_u2-dn2-pad5_.  This node is used by m:1:u2:fet5:1.
WARNING: Less than two connections to node 1:unconnected-_u2-sn2-pad4_.  This node is used by m:1:u2:fet5:1.
WARNING: Less than two connections to node 1:unconnected-_u2-sn3-pad9_.  This node is used by m:1:u2:fet6:1.
WARNING: Less than two connections to node 1:nc-u4-1.  This node is used by q:1:u4:amp2:1.
WARNING: Less than two connections to node 1:nc-u4-0.  This node is used by q:1:u4:amp2:2.
WARNING: Less than two connections to node 1:nc-u4-4.  This node is used by q:1:u4:amp3:1.
WARNING: Less than two connections to node 1:nc-u4-5.  This node is used by q:1:u4:amp3:2.
WARNING: Less than two connections to node 1:nc-u4-7.  This node is used by q:1:u4:amp4:1.
WARNING: Less than two connections to node 1:nc-u4-6.  This node is used by q:1:u4:amp4:2.
WARNING: Less than two connections to node 1:nc-u1-0.  This node is used by r:1:u1:x.
Early termination of direct N-R iteration.
Direct Newton iteration failed to find .op point.  (Use ".option noopiter" to skip.)
Starting Gmin stepping
Increasing initial diagonal Gmin to 100
Increasing initial diagonal Gmin to 1000
Gmin = 1000
vernier = 0.5
vernier = 0.25
vernier = 0.125
vernier = 0.0625
Gmin = 969.467
vernier = 0.03125
vernier = 0.015625
vernier = 0.0078125
vernier = 0.00390625
Gmin = 972.232
vernier = 0.00195312
vernier = 0.000976562
vernier = 0.000488281
Gmin = 0
Gmin stepping failed

Starting source stepping with srcstepmethod=0
Source Step = 3.0303%
Source Step = 33.3333%
Source Step = 63.6364%
Source Step = 69.7058%
Source Step = 69.7354%
Source Step = 69.765%
Source Step = 69.7946%
Source Step = 69.8242%
vernier = 0.00146484
Source Step = 69.8553%
Source Step = 69.8997%
Source Step = 69.9441%
Source Step = 69.9885%
Source Step = 70.0328%
Source Step = 70.0772%
vernier = 0.00219727
Source Step = 70.1438%
Source Step = 70.2104%
Source Step = 70.277%
Source Step = 70.3436%
Source Step = 70.4102%
Source Step = 70.4767%
Source Step = 70.5433%
Source Step = 70.6099%
Source Step = 70.6765%
vernier = 0.0032959
Source Step = 70.7564%
Source Step = 70.8563%
Source Step = 70.9561%
Source Step = 71.056%
Source Step = 71.1559%
vernier = 0.00494385
Source Step = 71.2708%
Source Step = 71.4206%
Source Step = 71.5704%
Source Step = 71.7202%
Source Step = 71.87%
vernier = 0.00741577
Source Step = 72.0348%
Source Step = 72.2595%
Source Step = 72.4842%
Source Step = 72.709%
Source Step = 72.9337%
vernier = 0.0111237
Source Step = 73.1696%
Source Step = 73.5067%
Source Step = 73.8438%
Source Step = 74.1809%
Source Step = 74.518%
Source Step = 74.855%
vernier = 0.0166855
Source Step = 75.3607%
Source Step = 75.8663%
Source Step = 76.3719%
Source Step = 76.8775%
Source Step = 77.3831%
vernier = 0.0250282
Source Step = 78.1163%
Source Step = 78.8747%
Source Step = 79.6332%
Source Step = 80.3916%
Source Step = 81.15%
vernier = 0.0375423
Source Step = 82.2118%
Source Step = 83.3495%
Source Step = 84.4871%
Source Step = 85.6248%
Source Step = 86.7624%
vernier = 0.0563135
Source Step = 88.2982%
Source Step = 90.0047%
Source Step = 91.7112%
Source Step = 93.4176%
Source Step = 95.1241%
vernier = 0.0844703
Source Step = 97.3425%
Source Step = 99.9022%
Source stepping succeeded in finding the operating point.

Ignoring empty pin current: Ix(u3:1)
Ignoring empty pin current: Ix(u3:2)
Ignoring empty pin current: Ix(u3:3)
Ignoring empty pin current: Ix(u3:4)
Ignoring empty pin current: Ix(u3:5)
Ignoring empty pin current: Ix(u3:6)
Ignoring empty pin current: Ix(u3:7)
Ignoring empty pin current: Ix(u3:8)
Ignoring empty pin current: Ix(u3:9)
Ignoring empty pin current: Ix(u3:10)
Ignoring empty pin current: Ix(u3:11)
Ignoring empty pin current: Ix(u3:12)
Ignoring empty pin current: Ix(u3:13)
Ignoring empty pin current: Ix(u3:14)
Ignoring empty pin current: Ix(u6:1)
Ignoring empty pin current: Ix(u6:2)
Ignoring empty pin current: Ix(u6:3)
Ignoring empty pin current: Ix(u6:4)
Ignoring empty pin current: Ix(u6:5)
Ignoring empty pin current: Ix(u6:6)
Ignoring empty pin current: Ix(u6:7)
Ignoring empty pin current: Ix(u6:8)
Ignoring empty pin current: Ix(u6:9)
Ignoring empty pin current: Ix(u6:10)
Ignoring empty pin current: Ix(u6:11)
Ignoring empty pin current: Ix(u6:12)
Ignoring empty pin current: Ix(u6:13)
Ignoring empty pin current: Ix(u6:14)
Ignoring empty pin current: Ix(u2:1)
Ignoring empty pin current: Ix(u2:2)
Ignoring empty pin current: Ix(u2:3)
Ignoring empty pin current: Ix(u2:4)
Ignoring empty pin current: Ix(u2:5)
Ignoring empty pin current: Ix(u2:6)
Ignoring empty pin current: Ix(u2:7)
Ignoring empty pin current: Ix(u2:8)
Ignoring empty pin current: Ix(u2:9)
Ignoring empty pin current: Ix(u2:10)
Ignoring empty pin current: Ix(u2:11)
Ignoring empty pin current: Ix(u2:12)
Ignoring empty pin current: Ix(u2:13)
Ignoring empty pin current: Ix(u2:14)
Ignoring empty pin current: Ix(u5:1)
Ignoring empty pin current: Ix(u5:2)
Ignoring empty pin current: Ix(u5:3)
Ignoring empty pin current: Ix(u5:4)
Ignoring empty pin current: Ix(u5:5)
Ignoring empty pin current: Ix(u5:6)
Ignoring empty pin current: Ix(u5:7)
Ignoring empty pin current: Ix(u5:8)
Ignoring empty pin current: Ix(u5:9)
Ignoring empty pin current: Ix(u5:10)
Ignoring empty pin current: Ix(u5:11)
Ignoring empty pin current: Ix(u5:12)
Ignoring empty pin current: Ix(u5:13)
Ignoring empty pin current: Ix(u5:14)
Ignoring empty pin current: Ix(q1:1)
Ignoring empty pin current: Ix(q1:2)
Ignoring empty pin current: Ix(q1:3)
Ignoring empty pin current: Ix(u4:1)
Ignoring empty pin current: Ix(u4:2)
Ignoring empty pin current: Ix(u4:3)
Ignoring empty pin current: Ix(u4:4)
Ignoring empty pin current: Ix(u4:5)
Ignoring empty pin current: Ix(u4:6)
Ignoring empty pin current: Ix(u4:7)
Ignoring empty pin current: Ix(u4:8)
Ignoring empty pin current: Ix(u4:9)
Ignoring empty pin current: Ix(u4:10)
Ignoring empty pin current: Ix(u4:11)
Ignoring empty pin current: Ix(u4:12)
Ignoring empty pin current: Ix(u4:13)
Ignoring empty pin current: Ix(u4:14)
Ignoring empty pin current: Ix(u1:adj)
Ignoring empty pin current: Ix(u1:out)
Ignoring empty pin current: Ix(u1:in)
Ignoring empty pin current: Ix(u1:tab)
Ignoring empty pin current: Ix(1:vfb)
Ignoring empty pin current: Ix(u3:1)
Ignoring empty pin current: Ix(u3:2)
Ignoring empty pin current: Ix(u3:3)
Ignoring empty pin current: Ix(u3:4)
Ignoring empty pin current: Ix(u3:5)
Ignoring empty pin current: Ix(u3:6)
Ignoring empty pin current: Ix(u3:7)
Ignoring empty pin current: Ix(u3:8)
Ignoring empty pin current: Ix(u3:9)
Ignoring empty pin current: Ix(u3:10)
Ignoring empty pin current: Ix(u3:11)
Ignoring empty pin current: Ix(u3:12)
Ignoring empty pin current: Ix(u3:13)
Ignoring empty pin current: Ix(u3:14)
Ignoring empty pin current: Ix(u6:1)
Ignoring empty pin current: Ix(u6:2)
Ignoring empty pin current: Ix(u6:3)
Ignoring empty pin current: Ix(u6:4)
Ignoring empty pin current: Ix(u6:5)
Ignoring empty pin current: Ix(u6:6)
Ignoring empty pin current: Ix(u6:7)
Ignoring empty pin current: Ix(u6:8)
Ignoring empty pin current: Ix(u6:9)
Ignoring empty pin current: Ix(u6:10)
Ignoring empty pin current: Ix(u6:11)
Ignoring empty pin current: Ix(u6:12)
Ignoring empty pin current: Ix(u6:13)
Ignoring empty pin current: Ix(u6:14)
Ignoring empty pin current: Ix(u2:1)
Ignoring empty pin current: Ix(u2:2)
Ignoring empty pin current: Ix(u2:3)
Ignoring empty pin current: Ix(u2:4)
Ignoring empty pin current: Ix(u2:5)
Ignoring empty pin current: Ix(u2:6)
Ignoring empty pin current: Ix(u2:7)
Ignoring empty pin current: Ix(u2:8)
Ignoring empty pin current: Ix(u2:9)
Ignoring empty pin current: Ix(u2:10)
Ignoring empty pin current: Ix(u2:11)
Ignoring empty pin current: Ix(u2:12)
Ignoring empty pin current: Ix(u2:13)
Ignoring empty pin current: Ix(u2:14)
Ignoring empty pin current: Ix(u5:1)
Ignoring empty pin current: Ix(u5:2)
Ignoring empty pin current: Ix(u5:3)
Ignoring empty pin current: Ix(u5:4)
Ignoring empty pin current: Ix(u5:5)
Ignoring empty pin current: Ix(u5:6)
Ignoring empty pin current: Ix(u5:7)
Ignoring empty pin current: Ix(u5:8)
Ignoring empty pin current: Ix(u5:9)
Ignoring empty pin current: Ix(u5:10)
Ignoring empty pin current: Ix(u5:11)
Ignoring empty pin current: Ix(u5:12)
Ignoring empty pin current: Ix(u5:13)
Ignoring empty pin current: Ix(u5:14)
Ignoring empty pin current: Ix(q1:1)
Ignoring empty pin current: Ix(q1:2)
Ignoring empty pin current: Ix(q1:3)
Ignoring empty pin current: Ix(u4:1)
Ignoring empty pin current: Ix(u4:2)
Ignoring empty pin current: Ix(u4:3)
Ignoring empty pin current: Ix(u4:4)
Ignoring empty pin current: Ix(u4:5)
Ignoring empty pin current: Ix(u4:6)
Ignoring empty pin current: Ix(u4:7)
Ignoring empty pin current: Ix(u4:8)
Ignoring empty pin current: Ix(u4:9)
Ignoring empty pin current: Ix(u4:10)
Ignoring empty pin current: Ix(u4:11)
Ignoring empty pin current: Ix(u4:12)
Ignoring empty pin current: Ix(u4:13)
Ignoring empty pin current: Ix(u4:14)
Ignoring empty pin current: Ix(u1:adj)
Ignoring empty pin current: Ix(u1:out)
Ignoring empty pin current: Ix(u1:in)
Ignoring empty pin current: Ix(u1:tab)
Ignoring empty pin current: Ix(1:vfb)
Total elapsed time: 8.313 seconds.

